dss/import/capas-pablo/Formato-interfaz/urbano/Transformer.dss
New Transformer.idseta_10 phases=3 wdg=1 bus=22.1.2.3 kv=13.2 kVA=200.0 wdg=2 bus=x_10.1.2.3 kv=0.38 kVA=200.0 %imag=0.5 %loadloss=1.5 %noloadloss=0.25 XHL=2.0 conns=[delta, wye, ] ppm_antifloat=0
New Transformer.idseta_79 phases=3 wdg=1 bus=33.1.2.3 kv=13.2 kVA=125.0 wdg=2 bus=x_79.1.2.3 kv=0.38 kVA=125.0 %imag=0.5 %loadloss=1.5 %noloadloss=0.25 XHL=2.0 conns=[delta, wye, ] ppm_antifloat=0
New Transformer.idseta_80 phases=3 wdg=1 bus=71.1.2.3 kv=13.2 kVA=200.0 wdg=2 bus=x_80.1.2.3 kv=0.38 kVA=200.0 %imag=0.5 %loadloss=1.5 %noloadloss=0.25 XHL=2.0 conns=[delta, wye, ] ppm_antifloat=0
New Transformer.idseta_84 phases=3 wdg=1 bus=47.1.2.3 kv=13.2 kVA=100.0 wdg=2 bus=x_84.1.2.3 kv=0.38 kVA=100.0 %imag=0.5 %loadloss=1.5 %noloadloss=0.25 XHL=2.0 conns=[delta, wye, ] ppm_antifloat=0
New Transformer.idseta_14 phases=3 wdg=1 bus=69.1.2.3 kv=13.2 kVA=315.0 wdg=2 bus=x_14.1.2.3 kv=0.38 kVA=315.0 %imag=0.5 %loadloss=1.5 %noloadloss=0.25 XHL=2.0 conns=[delta, wye, ] ppm_antifloat=0
New Transformer.idseta_15 phases=3 wdg=1 bus=75.1.2.3 kv=13.2 kVA=315.0 wdg=2 bus=x_15.1.2.3 kv=0.38 kVA=315.0 %imag=0.5 %loadloss=1.5 %noloadloss=0.25 XHL=2.0 conns=[delta, wye, ] ppm_antifloat=0
New Transformer.idseta_81 phases=3 wdg=1 bus=73.1.2.3 kv=13.2 kVA=400.0 wdg=2 bus=x_81.1.2.3 kv=0.38 kVA=400.0 %imag=0.5 %loadloss=1.5 %noloadloss=0.25 XHL=2.0 conns=[delta, wye, ] ppm_antifloat=0
New Transformer.idseta_82 phases=3 wdg=1 bus=136.1.2.3 kv=13.2 kVA=315.0 wdg=2 bus=x_82.1.2.3 kv=0.38 kVA=315.0 %imag=0.5 %loadloss=1.5 %noloadloss=0.25 XHL=2.0 conns=[delta, wye, ] ppm_antifloat=0
New Transformer.idseta_335 phases=3 wdg=1 bus=86.1.2.3 kv=13.2 kVA=315.0 wdg=2 bus=x_335.1.2.3 kv=0.38 kVA=315.0 %imag=0.5 %loadloss=1.5 %noloadloss=0.25 XHL=2.0 conns=[delta, wye, ] ppm_antifloat=0
New Transformer.idseta_3022 phases=3 wdg=1 bus=127.1.2.3 kv=13.2 kVA=63.0 wdg=2 bus=x_3022.1.2.3 kv=0.38 kVA=63.0 %imag=0.5 %loadloss=1.5 %noloadloss=0.25 XHL=2.0 conns=[delta, wye, ] ppm_antifloat=0
New Transformer.idseta_12 phases=3 wdg=1 bus=28.1.2.3 kv=13.2 kVA=315.0 wdg=2 bus=x_12.1.2.3 kv=0.38 kVA=315.0 %imag=0.5 %loadloss=1.5 %noloadloss=0.25 XHL=2.0 conns=[delta, wye, ] ppm_antifloat=0
New Transformer.idseta_13 phases=3 wdg=1 bus=30.1.2.3 kv=13.2 kVA=315.0 wdg=2 bus=x_13.1.2.3 kv=0.38 kVA=315.0 %imag=0.5 %loadloss=1.5 %noloadloss=0.25 XHL=2.0 conns=[delta, wye, ] ppm_antifloat=0
New Transformer.idseta_60 phases=3 wdg=1 bus=78.1.2.3 kv=13.2 kVA=200.0 wdg=2 bus=x_60.1.2.3 kv=0.38 kVA=200.0 %imag=0.5 %loadloss=1.5 %noloadloss=0.25 XHL=2.0 conns=[delta, wye, ] ppm_antifloat=0
New Transformer.idseta_47 phases=3 wdg=1 bus=88.1.2.3 kv=13.2 kVA=100.0 wdg=2 bus=x_47.1.2.3 kv=0.38 kVA=100.0 %imag=0.5 %loadloss=1.5 %noloadloss=0.25 XHL=2.0 conns=[delta, wye, ] ppm_antifloat=0
New Transformer.idseta_3009 phases=3 wdg=1 bus=4.1.2.3 kv=13.2 kVA=315.0 wdg=2 bus=x_3009.1.2.3 kv=0.38 kVA=315.0 %imag=0.5 %loadloss=1.5 %noloadloss=0.25 XHL=2.0 conns=[delta, wye, ] ppm_antifloat=0
New Transformer.idseta_57 phases=3 wdg=1 bus=67.1.2.3 kv=13.2 kVA=315.0 wdg=2 bus=x_57.1.2.3 kv=0.38 kVA=315.0 %imag=0.5 %loadloss=1.5 %noloadloss=0.25 XHL=2.0 conns=[delta, wye, ] ppm_antifloat=0
New Transformer.idseta_59 phases=3 wdg=1 bus=79.1.2.3 kv=13.2 kVA=315.0 wdg=2 bus=x_59.1.2.3 kv=0.38 kVA=315.0 %imag=0.5 %loadloss=1.5 %noloadloss=0.25 XHL=2.0 conns=[delta, wye, ] ppm_antifloat=0
New Transformer.idseta_71 phases=3 wdg=1 bus=32.1.2.3 kv=13.2 kVA=200.0 wdg=2 bus=x_71.1.2.3 kv=0.38 kVA=200.0 %imag=0.5 %loadloss=1.5 %noloadloss=0.25 XHL=2.0 conns=[delta, wye, ] ppm_antifloat=0
New Transformer.idseta_72 phases=3 wdg=1 bus=9.1.2.3 kv=13.2 kVA=200.0 wdg=2 bus=x_72.1.2.3 kv=0.38 kVA=200.0 %imag=0.5 %loadloss=1.5 %noloadloss=0.25 XHL=2.0 conns=[delta, wye, ] ppm_antifloat=0
New Transformer.idseta_75 phases=3 wdg=1 bus=21.1.2.3 kv=13.2 kVA=100.0 wdg=2 bus=x_75.1.2.3 kv=0.38 kVA=100.0 %imag=0.5 %loadloss=1.5 %noloadloss=0.25 XHL=2.0 conns=[delta, wye, ] ppm_antifloat=0
New Transformer.idseta_76 phases=3 wdg=1 bus=53.1.2.3 kv=13.2 kVA=315.0 wdg=2 bus=x_76.1.2.3 kv=0.38 kVA=315.0 %imag=0.5 %loadloss=1.5 %noloadloss=0.25 XHL=2.0 conns=[delta, wye, ] ppm_antifloat=0
New Transformer.idseta_840 phases=3 wdg=1 bus=13.1.2.3 kv=13.2 kVA=160.0 wdg=2 bus=x_840.1.2.3 kv=0.38 kVA=160.0 %imag=0.5 %loadloss=1.5 %noloadloss=0.25 XHL=2.0 conns=[delta, wye, ] ppm_antifloat=0
New Transformer.idseta_2943 phases=3 wdg=1 bus=119.1.2.3 kv=13.2 kVA=200.0 wdg=2 bus=x_2943.1.2.3 kv=0.38 kVA=200.0 %imag=0.5 %loadloss=1.5 %noloadloss=0.25 XHL=2.0 conns=[delta, wye, ] ppm_antifloat=0
New Transformer.idseta_116 phases=3 wdg=1 bus=109.1.2.3 kv=13.2 kVA=75.0 wdg=2 bus=x_116.1.2.3 kv=0.38 kVA=75.0 %imag=0.5 %loadloss=1.5 %noloadloss=0.25 XHL=2.0 conns=[delta, wye, ] ppm_antifloat=0
New Transformer.idseta_132 phases=3 wdg=1 bus=130.1.2.3 kv=13.2 kVA=315.0 wdg=2 bus=x_132.1.2.3 kv=0.38 kVA=315.0 %imag=0.5 %loadloss=1.5 %noloadloss=0.25 XHL=2.0 conns=[delta, wye, ] ppm_antifloat=0
New Transformer.idseta_131 phases=3 wdg=1 bus=131.1.2.3 kv=13.2 kVA=160.0 wdg=2 bus=x_131.1.2.3 kv=0.38 kVA=160.0 %imag=0.5 %loadloss=1.5 %noloadloss=0.25 XHL=2.0 conns=[delta, wye, ] ppm_antifloat=0
New Transformer.idseta_130 phases=3 wdg=1 bus=132.1.2.3 kv=13.2 kVA=160.0 wdg=2 bus=x_130.1.2.3 kv=0.38 kVA=160.0 %imag=0.5 %loadloss=1.5 %noloadloss=0.25 XHL=2.0 conns=[delta, wye, ] ppm_antifloat=0
New Transformer.idseta_129 phases=3 wdg=1 bus=117.1.2.3 kv=13.2 kVA=160.0 wdg=2 bus=x_129.1.2.3 kv=0.38 kVA=160.0 %imag=0.5 %loadloss=1.5 %noloadloss=0.25 XHL=2.0 conns=[delta, wye, ] ppm_antifloat=0
New Transformer.idseta_128 phases=3 wdg=1 bus=134.1.2.3 kv=13.2 kVA=315.0 wdg=2 bus=x_128.1.2.3 kv=0.38 kVA=315.0 %imag=0.5 %loadloss=1.5 %noloadloss=0.25 XHL=2.0 conns=[delta, wye, ] ppm_antifloat=0
New Transformer.idseta_3 phases=3 wdg=1 bus=60.1.2.3 kv=13.2 kVA=315.0 wdg=2 bus=x_3.1.2.3 kv=0.38 kVA=315.0 %imag=0.5 %loadloss=1.5 %noloadloss=0.25 XHL=2.0 conns=[delta, wye, ] ppm_antifloat=0
New Transformer.idseta_6 phases=3 wdg=1 bus=7.1.2.3 kv=13.2 kVA=250.0 wdg=2 bus=x_6.1.2.3 kv=0.38 kVA=250.0 %imag=0.5 %loadloss=1.5 %noloadloss=0.25 XHL=2.0 conns=[delta, wye, ] ppm_antifloat=0
New Transformer.idseta_7 phases=3 wdg=1 bus=59.1.2.3 kv=13.2 kVA=400.0 wdg=2 bus=x_7.1.2.3 kv=0.38 kVA=400.0 %imag=0.5 %loadloss=1.5 %noloadloss=0.25 XHL=2.0 conns=[delta, wye, ] ppm_antifloat=0
New Transformer.idseta_8 phases=3 wdg=1 bus=49.1.2.3 kv=13.2 kVA=160.0 wdg=2 bus=x_8.1.2.3 kv=0.38 kVA=160.0 %imag=0.5 %loadloss=1.5 %noloadloss=0.25 XHL=2.0 conns=[delta, wye, ] ppm_antifloat=0
New Transformer.idseta_9 phases=3 wdg=1 bus=37.1.2.3 kv=13.2 kVA=250.0 wdg=2 bus=x_9.1.2.3 kv=0.38 kVA=250.0 %imag=0.5 %loadloss=1.5 %noloadloss=0.25 XHL=2.0 conns=[delta, wye, ] ppm_antifloat=0
New Transformer.idseta_69 phases=3 wdg=1 bus=34.1.2.3 kv=13.2 kVA=315.0 wdg=2 bus=x_69.1.2.3 kv=0.38 kVA=315.0 %imag=0.5 %loadloss=1.5 %noloadloss=0.25 XHL=2.0 conns=[delta, wye, ] ppm_antifloat=0
New Transformer.idseta_70 phases=3 wdg=1 bus=135.1.2.3 kv=13.2 kVA=315.0 wdg=2 bus=x_70.1.2.3 kv=0.38 kVA=315.0 %imag=0.5 %loadloss=1.5 %noloadloss=0.25 XHL=2.0 conns=[delta, wye, ] ppm_antifloat=0
New Transformer.idseta_74 phases=3 wdg=1 bus=108.1.2.3 kv=13.2 kVA=160.0 wdg=2 bus=x_74.1.2.3 kv=0.38 kVA=160.0 %imag=0.5 %loadloss=1.5 %noloadloss=0.25 XHL=2.0 conns=[delta, wye, ] ppm_antifloat=0
New Transformer.idseta_91 phases=3 wdg=1 bus=56.1.2.3 kv=13.2 kVA=200.0 wdg=2 bus=x_91.1.2.3 kv=0.38 kVA=200.0 %imag=0.5 %loadloss=1.5 %noloadloss=0.25 XHL=2.0 conns=[delta, wye, ] ppm_antifloat=0
New Transformer.idseta_89 phases=3 wdg=1 bus=11.1.2.3 kv=13.2 kVA=200.0 wdg=2 bus=x_89.1.2.3 kv=0.38 kVA=200.0 %imag=0.5 %loadloss=1.5 %noloadloss=0.25 XHL=2.0 conns=[delta, wye, ] ppm_antifloat=0
New Transformer.idseta_93 phases=3 wdg=1 bus=63.1.2.3 kv=13.2 kVA=63.0 wdg=2 bus=x_93.1.2.3 kv=0.38 kVA=63.0 %imag=0.5 %loadloss=1.5 %noloadloss=0.25 XHL=2.0 conns=[delta, wye, ] ppm_antifloat=0
New Transformer.idseta_92 phases=3 wdg=1 bus=65.1.2.3 kv=13.2 kVA=63.0 wdg=2 bus=x_92.1.2.3 kv=0.38 kVA=63.0 %imag=0.5 %loadloss=1.5 %noloadloss=0.25 XHL=2.0 conns=[delta, wye, ] ppm_antifloat=0
New Transformer.idseta_96 phases=3 wdg=1 bus=97.1.2.3 kv=13.2 kVA=315.0 wdg=2 bus=x_96.1.2.3 kv=0.38 kVA=315.0 %imag=0.5 %loadloss=1.5 %noloadloss=0.25 XHL=2.0 conns=[delta, wye, ] ppm_antifloat=0
